/*--------------------------------*- C++ -*----------------------------------*\
| =========                 |                                                 |
| \\      /  F ield         | OpenFOAM: The Open Source CFD Toolbox           |
|  \\    /   O peration     | Version:  2.3.0                                 |
|   \\  /    A nd           | Web:      www.OpenFOAM.org                      |
|    \\/     M anipulation  |                                                 |
\*---------------------------------------------------------------------------*/
FoamFile
{
    version     2.0;
    format      ascii;
    class       dictionary;
    location    "system";
    object      fvSchemes;
}
// * * * * * * * * * * * * * * * * * * * * * * * * * * * * * * * * * * * * * //

ddtSchemes
{
    default         CrankNicolson 0.5;
}

gradSchemes
{
    default         Gauss linear;
}

divSchemes
{
    default         none;

    div(phi,T)      Gauss linearUpwind grad(T);
    div(phi,U)      Gauss linearUpwind grad(U);
    div(phicp,T)    Gauss linearUpwind grad(T);

}

laplacianSchemes
{
    default         none;
    laplacian((kappa|rho),T)  Gauss linear limited 1;
    laplacian(nu,U)            Gauss linear limited 1;
    laplacian((1|A(U)),p_rgh)  Gauss linear limited 1;
    laplacian(rAUf,p_rgh)      Gauss linear limited 1;
}

interpolationSchemes
{
    default         linear;
}

snGradSchemes
{
    default        limited 1;
}

fluxRequired
{
    default         no;
    p_rgh;
}


// ************************************************************************* //
